#
# This the GEOS-CHEM Dynamics Grid Component Registry. It defines Import,
# Internal and Export states for this component as well as
# any
#
# !REVISION HISTORY:
#  16Aug2006  da Silva   First Version
#  30Jun2012  Nielsen    For Ganymed
#
# -----------------------------------------------------------------

  COMP_NAME: GIGCdyn

# Only change the Registry version when major structural changes
# occurs, not changes in content
# --------------------------------------------------------------
  MAPL_REGISTRY_VERSION: 1.00

#				------------
#				Import State
#				------------

<ImportSpec name="GIGCdyn", cols="short_name,units,dims,vlocation,stat,refresh_interval,averaging_interval,num_subtiles,default,long_name">
# -------------------|-------------|-----|---|----|---|---|-----|------|--------------------------
#  Short	     |  	   |	 | V |Item|Intervl| Sub | Def  |	Long
#  Name 	     |   Units     | Dim |Loc|Type| R | A |Tiles| ault |	Name
# -------------------|-------------|-----|---|----|---|---|-----|------|--------------------------
  PS1                |     1	   | xy  |   |    |   |   |	|      | 
  PS2                |     1	   | xy  |   |    |   |   |	|      | 
  U                  |     1	   | xyz | C |    |   |   |	|      | 
  V                  |     1	   | xyz | C |    |   |   |	|      | 
    TRC_NO           |  mol/mol    | xyz | C |    |   |   |     |      | NO
    TRC_O3           |  mol/mol    | xyz | C |    |   |   |     |      | O3
    TRC_PAN          |  mol/mol    | xyz | C |    |   |   |     |      | peroxyacetyl nitrate
    TRC_CO           |  mol/mol    | xyz | C |    |   |   |     |      | carbon monoxide
    TRC_ALK4         |  mol/mol    | xyz | C |    |   |   |     |      | >=C4 alkanes
    TRC_ISOP         |  mol/mol    | xyz | C |    |   |   |     |      | isoprene
    TRC_HNO3         |  mol/mol    | xyz | C |    |   |   |     |      | nitric acid
    TRC_H2O2         |  mol/mol    | xyz | C |    |   |   |     |      | hydrogen peroxide
    TRC_ACET         |  mol/mol    | xyz | C |    |   |   |     |      | acetone
    TRC_MEK          |  mol/mol    | xyz | C |    |   |   |     |      | methyl ethyl ketone
    TRC_ALD2         |  mol/mol    | xyz | C |    |   |   |     |      | acetaldehyde
    TRC_RCHO         |  mol/mol    | xyz | C |    |   |   |     |      | lumped aldehyde >=C3
    TRC_MVK          |  mol/mol    | xyz | C |    |   |   |     |      | methyl vinyl ketone
    TRC_MACR         |  mol/mol    | xyz | C |    |   |   |     |      | methacrolein
    TRC_PMN          |  mol/mol    | xyz | C |    |   |   |     |      | peroxymethacryoyl nitrate
    TRC_PPN          |  mol/mol    | xyz | C |    |   |   |     |      | lumped peroxyacyl nitrate
    TRC_R4N2         |  mol/mol    | xyz | C |    |   |   |     |      | lumped alkyl nitrate
    TRC_PRPE         |  mol/mol    | xyz | C |    |   |   |     |      | >=C3 alkenes
    TRC_C3H8         |  mol/mol    | xyz | C |    |   |   |     |      | propane
    TRC_CH2O         |  mol/mol    | xyz | C |    |   |   |     |      | formaldehyde
    TRC_C2H6         |  mol/mol    | xyz | C |    |   |   |     |      | ethane
    TRC_N2O5         |  mol/mol    | xyz | C |    |   |   |     |      | dinitrogen pentoxide
    TRC_HNO4         |  mol/mol    | xyz | C |    |   |   |     |      | pernitric acid
    TRC_MP           |  mol/mol    | xyz | C |    |   |   |     |      | methyl hydro peroxide
    TRC_DMS          |  mol/mol    | xyz | C |    |   |   |     |      | dimethyl sulfide
    TRC_SO2          |  mol/mol    | xyz | C |    |   |   |     |      | sulfur dioxide
    TRC_SO4          |  mol/mol    | xyz | C |    |   |   |     |      | sulfate
    TRC_SO4s         |  mol/mol    | xyz | C |    |   |   |     |      | sulfate on surface of sea salt aerosol
    TRC_MSA          |  mol/mol    | xyz | C |    |   |   |     |      | methyl sulfionic acid
    TRC_NH3          |  mol/mol    | xyz | C |    |   |   |     |      | ammonia
    TRC_NH4          |  mol/mol    | xyz | C |    |   |   |     |      | ammonium
    TRC_NIT          |  mol/mol    | xyz | C |    |   |   |     |      | aerosol nitrate ion
    TRC_NITs         |  mol/mol    | xyz | C |    |   |   |     |      | aerosol nitrate ion on surface of sea salt aerosol
    TRC_BCPI         |  mol/mol    | xyz | C |    |   |   |     |      | black carbon, hydrophilic
    TRC_OCPI         |  mol/mol    | xyz | C |    |   |   |     |      | organic carbon, hydrophilic
    TRC_BCPO         |  mol/mol    | xyz | C |    |   |   |     |      | black carbon, hydrophobic
    TRC_OCPO         |  mol/mol    | xyz | C |    |   |   |     |      | organic carbon, hydrophobic
    TRC_DST1         |  mol/mol    | xyz | C |    |   |   |     |      | dust aerosol, Reff = 0.7 microns
    TRC_DST2         |  mol/mol    | xyz | C |    |   |   |     |      | dust aerosol, Reff = 1.4 microns
    TRC_DST3         |  mol/mol    | xyz | C |    |   |   |     |      | dust aerosol, Reff = 2.4 microns
    TRC_DST4         |  mol/mol    | xyz | C |    |   |   |     |      | dust aerosol, Reff = 4.5 microns
    TRC_SALA         |  mol/mol    | xyz | C |    |   |   |     |      | sea salt aerosol, accumulation mode
    TRC_SALC         |  mol/mol    | xyz | C |    |   |   |     |      | sea salt aerosol, coarse mode  
    TRC_Br2          |  mol/mol    | xyz | C |    |   |   |     |      | Br2
    TRC_Br           |  mol/mol    | xyz | C |    |   |   |     |      | Br
    TRC_BrO          |  mol/mol    | xyz | C |    |   |   |     |      | BrO
    TRC_HOBr         |  mol/mol    | xyz | C |    |   |   |     |      | HOBr
    TRC_HBr          |  mol/mol    | xyz | C |    |   |   |     |      | HBr
    TRC_BrNO2        |  mol/mol    | xyz | C |    |   |   |     |      | BrNO2
    TRC_BrNO3        |  mol/mol    | xyz | C |    |   |   |     |      | BrNO3
    TRC_CHBr3        |  mol/mol    | xyz | C |    |   |   |     |      | CHBr3 
    TRC_CH2Br2       |  mol/mol    | xyz | C |    |   |   |     |      | CH2Br2 
    TRC_CH3Br        |  mol/mol    | xyz | C |    |   |   |     |      | CH3Br 
    TRC_MPN          |  mol/mol    | xyz | C |    |   |   |     |      | MPN
    TRC_ISOPN        |  mol/mol    | xyz | C |    |   |   |     |      | ISOPN
    TRC_MOBA         |  mol/mol    | xyz | C |    |   |   |     |      | MOBA
    TRC_PROPNN       |  mol/mol    | xyz | C |    |   |   |     |      | PROPNN
    TRC_HAC          |  mol/mol    | xyz | C |    |   |   |     |      | HAC
    TRC_GLYC         |  mol/mol    | xyz | C |    |   |   |     |      | GLYC
    TRC_MMN          |  mol/mol    | xyz | C |    |   |   |     |      | MMN
    TRC_RIP          |  mol/mol    | xyz | C |    |   |   |     |      | RIP
    TRC_IEPOX        |  mol/mol    | xyz | C |    |   |   |     |      | IEPOX
    TRC_MAP          |  mol/mol    | xyz | C |    |   |   |     |      | MAP
    TRC_NO2          |  mol/mol    | xyz | C |    |   |   |     |      | NO2
    TRC_NO3          |  mol/mol    | xyz | C |    |   |   |     |      | NO3
    TRC_HNO2         |  mol/mol    | xyz | C |    |   |   |     |      | HNO2
# -------------------|-------------|-----|---|----|---|---|-----|------|--------------------------
</ImportSpec>

#				------------
#				Export State
#				------------

<ExportSpec name="GIGCdyn", cols="short_name,units,dims,vlocation,stat,refresh_interval,averaging_interval,num_subtiles,long_name">
# ------------------|----------------|-----|---|----|---|---|-----|---------------------------------
#  Short	    |		     |     | V |Item|Intervl| Sub |	     Long
#  Name 	    |   Units	     | Dim |Loc|Type| R | A |Tiles|	     Name
# ------------------|----------------|-----|---|----|---|---|-----|---------------------------------
# ------------------|----------------|-----|---|----|---|---|-----|---------------------------------
</ExportSpec>

#                               --------------
#                               Internal State
#                               --------------

#
# Note: 1) For friendlies, use "D" for dynamics, "T" for turbulence and "C" for convection; leave blank otherwise
#       2) If quantity requires no restart, put an 'x' in the No Rst column
#       3) RO = Alkoxy radical, RO2 = Organic peroxy radical

<InternalSpec name="GIGCdyn", cols="short_name,units,dims,vlocation,stat,refresh_interval,averaging_interval,num_subtiles,default,norestart,halowidth,friendlyto,long_name">
# --------------|------------|-----|---|----|---|---|-----|------|----|----|---------|---------------------------------
#  Short        |            |     | V |Item|Intervl| Sub | Def  | No | Ha | Friends |            Long
#  Name         |   Units    | Dim |Loc|Type| R | A |Tiles| ault | Rst| lo |         |            Name
# --------------|------------|-----|---|----|---|---|-----|------|----|----|---------|---------------------------------
# --------------|------------|-----|---|----|---|---|-----|------|----|----|---------|---------------------------------
</InternalSpec>
