#
# This the GEOS-CHEM Grid Component Registry. It defines Import,
# Internal and Export states for this component as well as
# any
#
# !REVISION HISTORY:
#  16Aug2006  da Silva   First Version
#  30Jun2012  Nielsen    For Ganymed
#  10Oct2012  Yantosca   Updated for GEOS-Chem v9-01-03, which has new
#                        Bromine compounds as advected tracers & species
#  25Sep2013  Keller     Updated for GEOS-Chem v9-02l (NOx and Ox not lumped anymore, Isoprene                         update) 
#
# -----------------------------------------------------------------

  COMP_NAME: GIGCchem

# Only change the Registry version when major structural changes
# occurs, not changes in content
# --------------------------------------------------------------
  MAPL_REGISTRY_VERSION: 1.00

#				------------
#				Import State
#				------------

<ImportSpec name="GEOSCHEMCHEM", cols="short_name,units,dims,vlocation,stat,refresh_interval,averaging_interval,num_subtiles,default,long_name">
# -------------------|-------------|-----|---|----|---|---|-----|------|--------------------------
#  Short	     |  	   |	 | V |Item|Intervl| Sub | Def  |	Long
#  Name 	     |   Units     | Dim |Loc|Type| R | A |Tiles| ault |	Name
# -------------------|-------------|-----|---|----|---|---|-----|------|--------------------------
  AIRDENS            |  kg m-3     | xyz | C |    |   |   |     |      | air_density
  AREA               |     m2      | xy  |   |    |   |   |	|      | 
  FRLAKE             |     1	   | xy  |   |    |   |   |	|      | 
  FRLAND             |     1	   | xy  |   |    |   |   |	|      | 
  FRLANDIC           |     1	   | xy  |   |    |   |   |	|      | 
  FROCEAN            |     1	   | xy  |   |    |   |   |	|      | 
  PHIS               |     1	   | xy  |   |    |   |   |	|      | 
  ALBD               |     1	   | xy  |   |    |   |   |	|      | surface_albedo_for_visible_diffuse
  CLDFRC             |     1	   | xy  |   |    |   |   |	|      | 
  EFLUX              |     1	   | xy  |   |    |   |   |	|      | 
  EVAP               |     1	   | xy  |   |    |   |   |	|      | 
  FRSEAICE           |     1	   | xy  |   |    |   |   |	|      | 
  FRSNO              |     1	   | xy  |   |    |   |   |	|      | 
  GRN                |     1	   | xy  |   |    |   |   |	|      | 
  GWETROOT           |     1	   | xy  |   |    |   |   |	|      | 
  GWETTOP            |     1	   | xy  |   |    |   |   |	|      | 
  HFLUX              |     1	   | xy  |   |    |   |   |	|      | 
  LAI                |     1	   | xy  |   |    |   |   |	|      | 
  LWI                |     1	   | xy  |   |    |   |   |	|      | 
  RADLWG             |     1	   | xy  |   |    |   |   |	|      | 
  PARDF              |     1	   | xy  |   |    |   |   |	|      | 
  PARDR              |     1	   | xy  |   |    |   |   |	|      | 
  PBLH               |     1	   | xy  |   |    |   |   |	|      | 
  PLE                |     1       | xyz | E |    |   |   |     |      |
  PRECANV            |     1	   | xy  |   |    |   |   |	|      | 
  PRECCON            |     1	   | xy  |   |    |   |   |	|      | 
  PRECLSC            |     1	   | xy  |   |    |   |   |	|      | 
  PRECSNO            |     1	   | xy  |   |    |   |   |	|      | 
  PRECTOT            |     1	   | xy  |   |    |   |   |	|      | 
  SEAICE00           |     1	   | xy  |   |    |   |   |	|      | 
  SEAICE10           |     1	   | xy  |   |    |   |   |	|      | 
  SEAICE20           |     1	   | xy  |   |    |   |   |	|      | 
  SEAICE30           |     1	   | xy  |   |    |   |   |	|      | 
  SEAICE40           |     1	   | xy  |   |    |   |   |	|      | 
  SEAICE50           |     1	   | xy  |   |    |   |   |	|      | 
  SEAICE60           |     1	   | xy  |   |    |   |   |	|      | 
  SEAICE70           |     1	   | xy  |   |    |   |   |	|      | 
  SEAICE80           |     1	   | xy  |   |    |   |   |	|      | 
  SEAICE90           |     1	   | xy  |   |    |   |   |	|      | 
  SLP                |     1	   | xy  |   |    |   |   |	|      | 
  SNODP              |     1	   | xy  |   |    |   |   |	|      | 
  SNOMAS             |     1	   | xy  |   |    |   |   |	|      | 
  RADSWG             |     1	   | xy  |   |    |   |   |	|      | 
  TROPP              |     1	   | xy  |   |    |   |   |	|      | 
  TSKIN              |     1	   | xy  |   |    |   |   |	|      | 
  TS                 |     1	   | xy  |   |    |   |   |	|      | 
  U10M               |     1	   | xy  |   |    |   |   |	|      | 
  USTAR              |     1	   | xy  |   |    |   |   |	|      | 
  V10M               |     1	   | xy  |   |    |   |   |	|      | 
  Z0                 |     1	   | xy  |   |    |   |   |	|      | 
  PS1                |     1	   | xy  | E |    |   |   |	|      | 
#  PS2                |     1	   | xy  |   |    |   |   |	|      | 
  OPTDEP             |     1	   | xyz | C |    |   |   |	|      | 
  CLDF               |     1	   | xyz | C |    |   |   |	|      | 
  QI                 |     1	   | xyz | C |    |   |   |	|      | 
  QL                 |     1	   | xyz | C |    |   |   |	|      | 
  TAUCLI             |     1	   | xyz | C |    |   |   |	|      | 
  TAUCLW             |     1	   | xyz | C |    |   |   |	|      | 
  CMFMC              |     1	   | xyz | E |    |   |   |	|      | 
  DTRAIN             |     1	   | xyz | C |    |   |   |	|      | 
  RH                 |     1	   | xyz | C |    |   |   |	|      | 
  DQRCU              |     1	   | xyz | C |    |   |   |	|      | 
  DQRLSAN            |     1	   | xyz | C |    |   |   |	|      | 
  REEVAPCN           |     1	   | xyz | C |    |   |   |	|      | 
  REEVAPLS           |     1	   | xyz | C |    |   |   |	|      | 
  PFICU              |     1	   | xyz | E |    |   |   |	|      | 
  PFILSAN            |     1	   | xyz | E |    |   |   |	|      | 
  PFLCU              |     1	   | xyz | E |    |   |   |	|      | 
  PFLLSAN            |     1	   | xyz | E |    |   |   |	|      | 
  SPHU1              |     1	   | xyz | C |    |   |   |	|      | 
  TMPU1              |     1	   | xyz | C |    |   |   |	|      | 
  SPHU2              |     1	   | xyz | C |    |   |   |	|      | 
  TMPU2              |     1	   | xyz | C |    |   |   |	|      | 
  VEGFRAC_1          |      1      | xy  |   |    |   |   |     |      | drydep_fraction_type01
  VEGFRAC_2          |      1      | xy  |   |    |   |   |     |      | drydep_fraction_type02
  VEGFRAC_3          |      1      | xy  |   |    |   |   |     |      | drydep_fraction_type03
  VEGFRAC_4          |      1      | xy  |   |    |   |   |     |      | drydep_fraction_type04
  VEGFRAC_5          |      1      | xy  |   |    |   |   |     |      | drydep_fraction_type05
  VEGFRAC_6          |      1      | xy  |   |    |   |   |     |      | drydep_fraction_type06
  VEGFRAC_7          |      1      | xy  |   |    |   |   |     |      | drydep_fraction_type07
  VEGFRAC_8          |      1      | xy  |   |    |   |   |     |      | drydep_fraction_type08
# -------------------|-------------|-----|---|----|---|---|-----|------|--------------------------
</ImportSpec>

#				------------
#				Export State
#				------------

<ExportSpec name="GEOSCHEMCHEM", cols="short_name,units,dims,vlocation,stat,refresh_interval,averaging_interval,num_subtiles,long_name">
# ------------------|----------------|-----|---|----|---|---|-----|---------------------------------
#  Short	    |		     |     | V |Item|Intervl| Sub |	     Long
#  Name 	    |   Units	     | Dim |Loc|Type| R | A |Tiles|	     Name
# ------------------|----------------|-----|---|----|---|---|-----|---------------------------------
#  OX                | mol mol-1      | xyz | C |    |   |   |     | ozone_volume_mixing_ratio
  O3_EXP            | kg kg-1        | xyz | C |    |   |   |     | ozone_mass_mixing_ratio
  O3PPMV    	    | ppmv           | xyz | C |    |	|   |	  | ozone_volume_mixing_ratio_in_ppm
  OX_TEND    	    | kg kg-1 s-1    | xyz | C |    |	|   |	  | tendency_of_odd_oxygen_mixing_ratio_due_to_chemistry
  H2O_TEND    	    | kg kg-1 s-1    | xyz | C |    |	|   |	  | tendency_of_water_vapor_mixing_ratio_due_to_chemistry
  GCCTO3    	    | dobsons        | xy  |   |    |	|   |	  | total_ozone 
  GCCTTO3           | dobsons        | xy  |   |    |	|   |	  | total_tropospheric_ozone 
# ------------------|----------------|-----|---|----|---|---|-----|---------------------------------
</ExportSpec>
#                               --------------
#                               Internal State
#                               --------------
#
# Note: 1) For friendlies, use "D" for dynamics, "T" for turbulence, "C" for convection, S=self (adds to export); leave blank otherwise
#       2) If quantity requires no restart, put an 'x' in the No Rst column
#       3) RO = Alkoxy radical, RO2 = Organic peroxy radical
<InternalSpec name="GEOSCHEMCHEM", cols="short_name,units,dims,vlocation,stat,refresh_interval,averaging_interval,num_subtiles,default,norestart,halowidth,friendlyto,long_name">
# --------------|------------|-----|---|----|---|---|-----|------|----|----|---------|---------------------------------
#  Short        |            |     | V |Item|Intervl| Sub | Def  | No | Ha | Friends |            Long
#  Name         |   Units    | Dim |Loc|Type| R | A |Tiles| ault | Rst| lo |         |            Name
# --------------|------------|-----|---|----|---|---|-----|------|----|----|---------|---------------------------------
   GCCTROPP     |    Pa      | xy  |   |    |   |   |     |      |    |    | S          | tropopause_pressure_used_in_GEOS-Chem
 TRC_NO| mol mol-1 | xyz | C | | | | | | | | D,T,C | tmp
 TRC_O3| mol mol-1 | xyz | C | | | | | | | | D,T,C | tmp
 TRC_PAN| mol mol-1 | xyz | C | | | | | | | | D,T,C | tmp
 TRC_CO| mol mol-1 | xyz | C | | | | | | | | D,T,C | tmp
 TRC_ALK4| mol mol-1 | xyz | C | | | | | | | | D,T,C | tmp
 TRC_ISOP| mol mol-1 | xyz | C | | | | | | | | D,T,C | tmp
 TRC_HNO3| mol mol-1 | xyz | C | | | | | | | | D,T,C | tmp
 TRC_H2O2| mol mol-1 | xyz | C | | | | | | | | D,T,C | tmp
 TRC_ACET| mol mol-1 | xyz | C | | | | | | | | D,T,C | tmp
 TRC_MEK| mol mol-1 | xyz | C | | | | | | | | D,T,C | tmp
 TRC_ALD2| mol mol-1 | xyz | C | | | | | | | | D,T,C | tmp
 TRC_RCHO| mol mol-1 | xyz | C | | | | | | | | D,T,C | tmp
 TRC_MVK| mol mol-1 | xyz | C | | | | | | | | D,T,C | tmp
 TRC_MACR| mol mol-1 | xyz | C | | | | | | | | D,T,C | tmp
 TRC_PMN| mol mol-1 | xyz | C | | | | | | | | D,T,C | tmp
 TRC_PPN| mol mol-1 | xyz | C | | | | | | | | D,T,C | tmp
 TRC_R4N2| mol mol-1 | xyz | C | | | | | | | | D,T,C | tmp
 TRC_PRPE| mol mol-1 | xyz | C | | | | | | | | D,T,C | tmp
 TRC_C3H8| mol mol-1 | xyz | C | | | | | | | | D,T,C | tmp
 TRC_CH2O| mol mol-1 | xyz | C | | | | | | | | D,T,C | tmp
 TRC_C2H6| mol mol-1 | xyz | C | | | | | | | | D,T,C | tmp
 TRC_N2O5| mol mol-1 | xyz | C | | | | | | | | D,T,C | tmp
 TRC_HNO4| mol mol-1 | xyz | C | | | | | | | | D,T,C | tmp
 TRC_MP| mol mol-1 | xyz | C | | | | | | | | D,T,C | tmp
 TRC_DMS| mol mol-1 | xyz | C | | | | | | | | D,T,C | tmp
 TRC_SO2| mol mol-1 | xyz | C | | | | | | | | D,T,C | tmp
 TRC_SO4| mol mol-1 | xyz | C | | | | | | | | D,T,C | tmp
 TRC_SO4s| mol mol-1 | xyz | C | | | | | | | | D,T,C | tmp
 TRC_MSA| mol mol-1 | xyz | C | | | | | | | | D,T,C | tmp
 TRC_NH3| mol mol-1 | xyz | C | | | | | | | | D,T,C | tmp
 TRC_NH4| mol mol-1 | xyz | C | | | | | | | | D,T,C | tmp
 TRC_NIT| mol mol-1 | xyz | C | | | | | | | | D,T,C | tmp
 TRC_NITs| mol mol-1 | xyz | C | | | | | | | | D,T,C | tmp
 TRC_BCPI| mol mol-1 | xyz | C | | | | | | | | D,T,C | tmp
 TRC_OCPI| mol mol-1 | xyz | C | | | | | | | | D,T,C | tmp
 TRC_BCPO| mol mol-1 | xyz | C | | | | | | | | D,T,C | tmp
 TRC_OCPO| mol mol-1 | xyz | C | | | | | | | | D,T,C | tmp
 TRC_DST1| mol mol-1 | xyz | C | | | | | | | | D,T,C | tmp
 TRC_DST2| mol mol-1 | xyz | C | | | | | | | | D,T,C | tmp
 TRC_DST3| mol mol-1 | xyz | C | | | | | | | | D,T,C | tmp
 TRC_DST4| mol mol-1 | xyz | C | | | | | | | | D,T,C | tmp
 TRC_SALA| mol mol-1 | xyz | C | | | | | | | | D,T,C | tmp
 TRC_SALC| mol mol-1 | xyz | C | | | | | | | | D,T,C | tmp
 TRC_Br2| mol mol-1 | xyz | C | | | | | | | | D,T,C | tmp
 TRC_Br| mol mol-1 | xyz | C | | | | | | | | D,T,C | tmp
 TRC_BrO| mol mol-1 | xyz | C | | | | | | | | D,T,C | tmp
 TRC_HOBr| mol mol-1 | xyz | C | | | | | | | | D,T,C | tmp
 TRC_HBr| mol mol-1 | xyz | C | | | | | | | | D,T,C | tmp
 TRC_BrNO2| mol mol-1 | xyz | C | | | | | | | | D,T,C | tmp
 TRC_BrNO3| mol mol-1 | xyz | C | | | | | | | | D,T,C | tmp
 TRC_CHBr3| mol mol-1 | xyz | C | | | | | | | | D,T,C | tmp
 TRC_CH2Br2| mol mol-1 | xyz | C | | | | | | | | D,T,C | tmp
 TRC_CH3Br| mol mol-1 | xyz | C | | | | | | | | D,T,C | tmp
 TRC_MPN| mol mol-1 | xyz | C | | | | | | | | D,T,C | tmp
 TRC_ISOPN| mol mol-1 | xyz | C | | | | | | | | D,T,C | tmp
 TRC_MOBA| mol mol-1 | xyz | C | | | | | | | | D,T,C | tmp
 TRC_PROPNN| mol mol-1 | xyz | C | | | | | | | | D,T,C | tmp
 TRC_HAC| mol mol-1 | xyz | C | | | | | | | | D,T,C | tmp
 TRC_GLYC| mol mol-1 | xyz | C | | | | | | | | D,T,C | tmp
 TRC_MMN| mol mol-1 | xyz | C | | | | | | | | D,T,C | tmp
 TRC_RIP| mol mol-1 | xyz | C | | | | | | | | D,T,C | tmp
 TRC_IEPOX| mol mol-1 | xyz | C | | | | | | | | D,T,C | tmp
 TRC_MAP| mol mol-1 | xyz | C | | | | | | | | D,T,C | tmp
 TRC_NO2| mol mol-1 | xyz | C | | | | | | | | D,T,C | tmp
 TRC_NO3| mol mol-1 | xyz | C | | | | | | | | D,T,C | tmp
 TRC_HNO2| mol mol-1 | xyz | C | | | | | | | | D,T,C | tmp
 TRC_N2O| mol mol-1 | xyz | C | | | | | | | | D,T,C | tmp
 TRC_OCS| mol mol-1 | xyz | C | | | | | | | | D,T,C | tmp
 TRC_CH4| mol mol-1 | xyz | C | | | | | | | | D,T,C | tmp
 TRC_BrCl| mol mol-1 | xyz | C | | | | | | | | D,T,C | tmp
 TRC_HCl| mol mol-1 | xyz | C | | | | | | | | D,T,C | tmp
 TRC_CCl4| mol mol-1 | xyz | C | | | | | | | | D,T,C | tmp
 TRC_CH3Cl| mol mol-1 | xyz | C | | | | | | | | D,T,C | tmp
 TRC_CH3CCl3| mol mol-1 | xyz | C | | | | | | | | D,T,C | tmp
 TRC_CFCX| mol mol-1 | xyz | C | | | | | | | | D,T,C | tmp
 TRC_HCFCX| mol mol-1 | xyz | C | | | | | | | | D,T,C | tmp
 TRC_CFC11| mol mol-1 | xyz | C | | | | | | | | D,T,C | tmp
 TRC_CFC12| mol mol-1 | xyz | C | | | | | | | | D,T,C | tmp
 TRC_HCFC22| mol mol-1 | xyz | C | | | | | | | | D,T,C | tmp
 TRC_H1211| mol mol-1 | xyz | C | | | | | | | | D,T,C | tmp
 TRC_H1301| mol mol-1 | xyz | C | | | | | | | | D,T,C | tmp
 TRC_H2402| mol mol-1 | xyz | C | | | | | | | | D,T,C | tmp
 TRC_Cl| mol mol-1 | xyz | C | | | | | | | | D,T,C | tmp
 TRC_ClO| mol mol-1 | xyz | C | | | | | | | | D,T,C | tmp
 TRC_HOCl| mol mol-1 | xyz | C | | | | | | | | D,T,C | tmp
 TRC_ClNO3| mol mol-1 | xyz | C | | | | | | | | D,T,C | tmp
 TRC_ClNO2| mol mol-1 | xyz | C | | | | | | | | D,T,C | tmp
 TRC_ClOO| mol mol-1 | xyz | C | | | | | | | | D,T,C | tmp
 TRC_OClO| mol mol-1 | xyz | C | | | | | | | | D,T,C | tmp
 TRC_Cl2| mol mol-1 | xyz | C | | | | | | | | D,T,C | tmp
 TRC_Cl2O2| mol mol-1 | xyz | C | | | | | | | | D,T,C | tmp
 TRC_H2O | mol mol-1 | xyz | C |    |   |   |     |      | | | D,T,C | tmp
 JLOP_PREV |   1     | xyz | C |    |   |   |     |      | | |       | tmp
# --------------|------------|-----|---|----|---|---|-----|------|----|----|---------|---------------------------------
</InternalSpec>
