#
# This the GEOS-CHEM Grid Component Registry. It defines Import,
# Internal and Export states for this component as well as
# any
#
# !REVISION HISTORY:
#  16Aug2006  da Silva   First Version
#  30Jun2012  Nielsen    For Ganymed
#  10Oct2012  Yantosca   Updated for GEOS-Chem v9-01-03, which has new
#                        Bromine compounds as advected tracers & species
#  25Sep2013  Keller     Updated for GEOS-Chem v9-02l (NOx and Ox not lumped anymore, Isoprene                         update) 
#
# -----------------------------------------------------------------

  COMP_NAME: GIGCchem

# Only change the Registry version when major structural changes
# occurs, not changes in content
# --------------------------------------------------------------
  MAPL_REGISTRY_VERSION: 1.00

#				------------
#				Import State
#				------------

<ImportSpec name="GEOSCHEMCHEM", cols="short_name,units,dims,vlocation,stat,refresh_interval,averaging_interval,num_subtiles,default,long_name">
# -------------------|-------------|-----|---|----|---|---|-----|------|--------------------------
#  Short	     |  	   |	 | V |Item|Intervl| Sub | Def  |	Long
#  Name 	     |   Units     | Dim |Loc|Type| R | A |Tiles| ault |	Name
# -------------------|-------------|-----|---|----|---|---|-----|------|--------------------------
  AIRDENS            |  kg m-3     | xyz | C |    |   |   |     |      | air_density
  AREA               |     m2      | xy  |   |    |   |   |	|      | 
  FRLAKE             |     1	   | xy  |   |    |   |   |	|      | 
  FRLAND             |     1	   | xy  |   |    |   |   |	|      | 
  FRLANDIC           |     1	   | xy  |   |    |   |   |	|      | 
  FROCEAN            |     1	   | xy  |   |    |   |   |	|      | 
  PHIS               |     1	   | xy  |   |    |   |   |	|      | 
  ALBD               |     1	   | xy  |   |    |   |   |	|      | surface_albedo_for_visible_diffuse
  CLDFRC             |     1	   | xy  |   |    |   |   |	|      | 
  EFLUX              |     1	   | xy  |   |    |   |   |	|      | 
  EVAP               |     1	   | xy  |   |    |   |   |	|      | 
  FRSEAICE           |     1	   | xy  |   |    |   |   |	|      | 
  FRSNO              |     1	   | xy  |   |    |   |   |	|      | 
  GRN                |     1	   | xy  |   |    |   |   |	|      | 
  GWETROOT           |     1	   | xy  |   |    |   |   |	|      | 
  GWETTOP            |     1	   | xy  |   |    |   |   |	|      | 
  HFLUX              |     1	   | xy  |   |    |   |   |	|      | 
  LAI                |     1	   | xy  |   |    |   |   |	|      | 
  LWI                |     1	   | xy  |   |    |   |   |	|      | 
  RADLWG             |     1	   | xy  |   |    |   |   |	|      | 
  PARDF              |     1	   | xy  |   |    |   |   |	|      | 
  PARDR              |     1	   | xy  |   |    |   |   |	|      | 
  PBLH               |     1	   | xy  |   |    |   |   |	|      | 
  PRECANV            |     1	   | xy  |   |    |   |   |	|      | 
  PRECCON            |     1	   | xy  |   |    |   |   |	|      | 
  PRECLSC            |     1	   | xy  |   |    |   |   |	|      | 
  PRECSNO            |     1	   | xy  |   |    |   |   |	|      | 
  PRECTOT            |     1	   | xy  |   |    |   |   |	|      | 
  SEAICE00           |     1	   | xy  |   |    |   |   |	|      | 
  SEAICE10           |     1	   | xy  |   |    |   |   |	|      | 
  SEAICE20           |     1	   | xy  |   |    |   |   |	|      | 
  SEAICE30           |     1	   | xy  |   |    |   |   |	|      | 
  SEAICE40           |     1	   | xy  |   |    |   |   |	|      | 
  SEAICE50           |     1	   | xy  |   |    |   |   |	|      | 
  SEAICE60           |     1	   | xy  |   |    |   |   |	|      | 
  SEAICE70           |     1	   | xy  |   |    |   |   |	|      | 
  SEAICE80           |     1	   | xy  |   |    |   |   |	|      | 
  SEAICE90           |     1	   | xy  |   |    |   |   |	|      | 
  SLP                |     1	   | xy  |   |    |   |   |	|      | 
  SNODP              |     1	   | xy  |   |    |   |   |	|      | 
  SNOMAS             |     1	   | xy  |   |    |   |   |	|      | 
  RADSWG             |     1	   | xy  |   |    |   |   |	|      | 
  TROPP              |     1	   | xy  |   |    |   |   |	|      | 
  TSKIN              |     1	   | xy  |   |    |   |   |	|      | 
  TS                 |     1	   | xy  |   |    |   |   |	|      | 
  U10M               |     1	   | xy  |   |    |   |   |	|      | 
  USTAR              |     1	   | xy  |   |    |   |   |	|      | 
  V10M               |     1	   | xy  |   |    |   |   |	|      | 
  Z0                 |     1	   | xy  |   |    |   |   |	|      | 
  PS1                |     1	   | xy  | E |    |   |   |	|      | 
#  PS2                |     1	   | xy  |   |    |   |   |	|      | 
  OPTDEP             |     1	   | xyz | C |    |   |   |	|      | 
  CLDF               |     1	   | xyz | C |    |   |   |	|      | 
  QI                 |     1	   | xyz | C |    |   |   |	|      | 
  QL                 |     1	   | xyz | C |    |   |   |	|      | 
  TAUCLI             |     1	   | xyz | C |    |   |   |	|      | 
  TAUCLW             |     1	   | xyz | C |    |   |   |	|      | 
  CMFMC              |     1	   | xyz | E |    |   |   |	|      | 
  DTRAIN             |     1	   | xyz | C |    |   |   |	|      | 
  RH                 |     1	   | xyz | C |    |   |   |	|      | 
  DQRCU              |     1	   | xyz | C |    |   |   |	|      | 
  DQRLSAN            |     1	   | xyz | C |    |   |   |	|      | 
  REEVAPCN           |     1	   | xyz | C |    |   |   |	|      | 
  REEVAPLS           |     1	   | xyz | C |    |   |   |	|      | 
  PFICU              |     1	   | xyz | C |    |   |   |	|      | 
  PFILSAN            |     1	   | xyz | C |    |   |   |	|      | 
  PFLCU              |     1	   | xyz | C |    |   |   |	|      | 
  PFLLSAN            |     1	   | xyz | C |    |   |   |	|      | 
  SPHU1              |     1	   | xyz | C |    |   |   |	|      | 
  TMPU1              |     1	   | xyz | C |    |   |   |	|      | 
  SPHU2              |     1	   | xyz | C |    |   |   |	|      | 
  TMPU2              |     1	   | xyz | C |    |   |   |	|      | 
# -------------------|-------------|-----|---|----|---|---|-----|------|--------------------------
</ImportSpec>

#				------------
#				Export State
#				------------

<ExportSpec name="GEOSCHEMCHEM", cols="short_name,units,dims,vlocation,stat,refresh_interval,averaging_interval,num_subtiles,long_name">
# ------------------|----------------|-----|---|----|---|---|-----|---------------------------------
#  Short	    |		     |     | V |Item|Intervl| Sub |	     Long
#  Name 	    |   Units	     | Dim |Loc|Type| R | A |Tiles|	     Name
# ------------------|----------------|-----|---|----|---|---|-----|---------------------------------
#  OX                | mol mol-1      | xyz | C |    |   |   |     | ozone_volume_mixing_ratio
  O3_EXP            | kg kg-1        | xyz | C |    |   |   |     | ozone_mass_mixing_ratio
  O3PPMV    	    | ppmv           | xyz | C |    |	|   |	  | ozone_volume_mixing_ratio_in_ppm
  OX_TEND    	    | kg kg-1 s-1    | xyz | C |    |	|   |	  | tendency_of_odd_oxygen_mixing_ratio_due_to_chemistry
  H2O_TEND    	    | kg kg-1 s-1    | xyz | C |    |	|   |	  | tendency_of_water_vapor_mixing_ratio_due_to_chemistry
  GCCTO3    	    | dobsons        | xy  |   |    |	|   |	  | total_ozone 
  GCCTTO3           | dobsons        | xy  |   |    |	|   |	  | total_tropospheric_ozone 
# ------------------|----------------|-----|---|----|---|---|-----|---------------------------------
</ExportSpec>
#                               --------------
#                               Internal State
#                               --------------
#
# Note: 1) For friendlies, use "D" for dynamics, "T" for turbulence, "C" for convection, S=self (adds to export); leave blank otherwise
#       2) If quantity requires no restart, put an 'x' in the No Rst column
#       3) RO = Alkoxy radical, RO2 = Organic peroxy radical
<InternalSpec name="GEOSCHEMCHEM", cols="short_name,units,dims,vlocation,stat,refresh_interval,averaging_interval,num_subtiles,default,norestart,halowidth,friendlyto,long_name">
# --------------|------------|-----|---|----|---|---|-----|------|----|----|---------|---------------------------------
#  Short        |            |     | V |Item|Intervl| Sub | Def  | No | Ha | Friends |            Long
#  Name         |   Units    | Dim |Loc|Type| R | A |Tiles| ault | Rst| lo |         |            Name
# --------------|------------|-----|---|----|---|---|-----|------|----|----|---------|---------------------------------
   GCCTROPP     |    Pa      | xy  |   |    |   |   |     |      |    |    | S          | tropopause_pressure_used_in_GEOS-Chem
 TRC_NO| mol mol-1 | xyz | C | | | | | | | | D,T,C | tmp
 TRC_O3| mol mol-1 | xyz | C | | | | | | | | D,T,C | tmp
 TRC_PAN| mol mol-1 | xyz | C | | | | | | | | D,T,C | tmp
 TRC_CO| mol mol-1 | xyz | C | | | | | | | | D,T,C | tmp
 TRC_ALK4| mol mol-1 | xyz | C | | | | | | | | D,T,C | tmp
 TRC_ISOP| mol mol-1 | xyz | C | | | | | | | | D,T,C | tmp
 TRC_HNO3| mol mol-1 | xyz | C | | | | | | | | D,T,C | tmp
 TRC_H2O2| mol mol-1 | xyz | C | | | | | | | | D,T,C | tmp
 TRC_ACET| mol mol-1 | xyz | C | | | | | | | | D,T,C | tmp
 TRC_MEK| mol mol-1 | xyz | C | | | | | | | | D,T,C | tmp
 TRC_ALD2| mol mol-1 | xyz | C | | | | | | | | D,T,C | tmp
 TRC_RCHO| mol mol-1 | xyz | C | | | | | | | | D,T,C | tmp
 TRC_MVK| mol mol-1 | xyz | C | | | | | | | | D,T,C | tmp
 TRC_MACR| mol mol-1 | xyz | C | | | | | | | | D,T,C | tmp
 TRC_PMN| mol mol-1 | xyz | C | | | | | | | | D,T,C | tmp
 TRC_PPN| mol mol-1 | xyz | C | | | | | | | | D,T,C | tmp
 TRC_R4N2| mol mol-1 | xyz | C | | | | | | | | D,T,C | tmp
 TRC_PRPE| mol mol-1 | xyz | C | | | | | | | | D,T,C | tmp
 TRC_C3H8| mol mol-1 | xyz | C | | | | | | | | D,T,C | tmp
 TRC_CH2O| mol mol-1 | xyz | C | | | | | | | | D,T,C | tmp
 TRC_C2H6| mol mol-1 | xyz | C | | | | | | | | D,T,C | tmp
 TRC_N2O5| mol mol-1 | xyz | C | | | | | | | | D,T,C | tmp
 TRC_HNO4| mol mol-1 | xyz | C | | | | | | | | D,T,C | tmp
 TRC_MP| mol mol-1 | xyz | C | | | | | | | | D,T,C | tmp
 TRC_DMS| mol mol-1 | xyz | C | | | | | | | | D,T,C | tmp
 TRC_SO2| mol mol-1 | xyz | C | | | | | | | | D,T,C | tmp
 TRC_SO4| mol mol-1 | xyz | C | | | | | | | | D,T,C | tmp
 TRC_SO4s| mol mol-1 | xyz | C | | | | | | | | D,T,C | tmp
 TRC_MSA| mol mol-1 | xyz | C | | | | | | | | D,T,C | tmp
 TRC_NH3| mol mol-1 | xyz | C | | | | | | | | D,T,C | tmp
 TRC_NH4| mol mol-1 | xyz | C | | | | | | | | D,T,C | tmp
 TRC_NIT| mol mol-1 | xyz | C | | | | | | | | D,T,C | tmp
 TRC_NITs| mol mol-1 | xyz | C | | | | | | | | D,T,C | tmp
 TRC_BCPI| mol mol-1 | xyz | C | | | | | | | | D,T,C | tmp
 TRC_OCPI| mol mol-1 | xyz | C | | | | | | | | D,T,C | tmp
 TRC_BCPO| mol mol-1 | xyz | C | | | | | | | | D,T,C | tmp
 TRC_OCPO| mol mol-1 | xyz | C | | | | | | | | D,T,C | tmp
 TRC_DST1| mol mol-1 | xyz | C | | | | | | | | D,T,C | tmp
 TRC_DST2| mol mol-1 | xyz | C | | | | | | | | D,T,C | tmp
 TRC_DST3| mol mol-1 | xyz | C | | | | | | | | D,T,C | tmp
 TRC_DST4| mol mol-1 | xyz | C | | | | | | | | D,T,C | tmp
 TRC_SALA| mol mol-1 | xyz | C | | | | | | | | D,T,C | tmp
 TRC_SALC| mol mol-1 | xyz | C | | | | | | | | D,T,C | tmp
 TRC_Br2| mol mol-1 | xyz | C | | | | | | | | D,T,C | tmp
 TRC_Br| mol mol-1 | xyz | C | | | | | | | | D,T,C | tmp
 TRC_BrO| mol mol-1 | xyz | C | | | | | | | | D,T,C | tmp
 TRC_HOBr| mol mol-1 | xyz | C | | | | | | | | D,T,C | tmp
 TRC_HBr| mol mol-1 | xyz | C | | | | | | | | D,T,C | tmp
 TRC_BrNO2| mol mol-1 | xyz | C | | | | | | | | D,T,C | tmp
 TRC_BrNO3| mol mol-1 | xyz | C | | | | | | | | D,T,C | tmp
 TRC_CHBr3| mol mol-1 | xyz | C | | | | | | | | D,T,C | tmp
 TRC_CH2Br2| mol mol-1 | xyz | C | | | | | | | | D,T,C | tmp
 TRC_CH3Br| mol mol-1 | xyz | C | | | | | | | | D,T,C | tmp
 TRC_MPN| mol mol-1 | xyz | C | | | | | | | | D,T,C | tmp
 TRC_ISOPN| mol mol-1 | xyz | C | | | | | | | | D,T,C | tmp
 TRC_MOBA| mol mol-1 | xyz | C | | | | | | | | D,T,C | tmp
 TRC_PROPNN| mol mol-1 | xyz | C | | | | | | | | D,T,C | tmp
 TRC_HAC| mol mol-1 | xyz | C | | | | | | | | D,T,C | tmp
 TRC_GLYC| mol mol-1 | xyz | C | | | | | | | | D,T,C | tmp
 TRC_MMN| mol mol-1 | xyz | C | | | | | | | | D,T,C | tmp
 TRC_RIP| mol mol-1 | xyz | C | | | | | | | | D,T,C | tmp
 TRC_IEPOX| mol mol-1 | xyz | C | | | | | | | | D,T,C | tmp
 TRC_MAP| mol mol-1 | xyz | C | | | | | | | | D,T,C | tmp
 TRC_NO2| mol mol-1 | xyz | C | | | | | | | | D,T,C | tmp
 TRC_NO3| mol mol-1 | xyz | C | | | | | | | | D,T,C | tmp
 TRC_HNO2| mol mol-1 | xyz | C | | | | | | | | D,T,C | tmp
 TRC_N2O| mol mol-1 | xyz | C | | | | | | | | D,T,C | tmp
 TRC_OCS| mol mol-1 | xyz | C | | | | | | | | D,T,C | tmp
 TRC_CH4| mol mol-1 | xyz | C | | | | | | | | D,T,C | tmp
 TRC_BrCl| mol mol-1 | xyz | C | | | | | | | | D,T,C | tmp
 TRC_HCl| mol mol-1 | xyz | C | | | | | | | | D,T,C | tmp
 TRC_CCl4| mol mol-1 | xyz | C | | | | | | | | D,T,C | tmp
 TRC_CH3Cl| mol mol-1 | xyz | C | | | | | | | | D,T,C | tmp
 TRC_CH3CCl3| mol mol-1 | xyz | C | | | | | | | | D,T,C | tmp
 TRC_CFCX| mol mol-1 | xyz | C | | | | | | | | D,T,C | tmp
 TRC_HCFCX| mol mol-1 | xyz | C | | | | | | | | D,T,C | tmp
 TRC_CFC11| mol mol-1 | xyz | C | | | | | | | | D,T,C | tmp
 TRC_CFC12| mol mol-1 | xyz | C | | | | | | | | D,T,C | tmp
 TRC_HCFC22| mol mol-1 | xyz | C | | | | | | | | D,T,C | tmp
 TRC_H1211| mol mol-1 | xyz | C | | | | | | | | D,T,C | tmp
 TRC_H1301| mol mol-1 | xyz | C | | | | | | | | D,T,C | tmp
 TRC_H2402| mol mol-1 | xyz | C | | | | | | | | D,T,C | tmp
 TRC_Cl| mol mol-1 | xyz | C | | | | | | | | D,T,C | tmp
 TRC_ClO| mol mol-1 | xyz | C | | | | | | | | D,T,C | tmp
 TRC_HOCl| mol mol-1 | xyz | C | | | | | | | | D,T,C | tmp
 TRC_ClNO3| mol mol-1 | xyz | C | | | | | | | | D,T,C | tmp
 TRC_ClNO2| mol mol-1 | xyz | C | | | | | | | | D,T,C | tmp
 TRC_ClOO| mol mol-1 | xyz | C | | | | | | | | D,T,C | tmp
 TRC_OClO| mol mol-1 | xyz | C | | | | | | | | D,T,C | tmp
 TRC_Cl2| mol mol-1 | xyz | C | | | | | | | | D,T,C | tmp
 TRC_Cl2O2| mol mol-1 | xyz | C | | | | | | | | D,T,C | tmp
 TRC_H2O| mol mol-1 | xyz | C | | | | | | | | D,T,C | tmp
 SPC_A3O2| cm-3 | xyz | C | | | | |1e-20 | | | S | tmp
 SPC_ACET| cm-3 | xyz | C | | | | |1e-20 | | | S | tmp
 SPC_ALD2| cm-3 | xyz | C | | | | |1e-20 | | | S | tmp
 SPC_ALK4| cm-3 | xyz | C | | | | |1e-20 | | | S | tmp
 SPC_ATO2| cm-3 | xyz | C | | | | |1e-20 | | | S | tmp
 SPC_ATOOH| cm-3 | xyz | C | | | | |1e-20 | | | S | tmp
 SPC_B3O2| cm-3 | xyz | C | | | | |1e-20 | | | S | tmp
 SPC_Br| cm-3 | xyz | C | | | | |1e-20 | | | S | tmp
 SPC_Br2| cm-3 | xyz | C | | | | |1e-20 | | | S | tmp
 SPC_BrCl| cm-3 | xyz | C | | | | |1e-20 | | | S | tmp
 SPC_BrNO2| cm-3 | xyz | C | | | | |1e-20 | | | S | tmp
 SPC_BrNO3| cm-3 | xyz | C | | | | |1e-20 | | | S | tmp
 SPC_BrO| cm-3 | xyz | C | | | | |1e-20 | | | S | tmp
 SPC_C2H6| cm-3 | xyz | C | | | | |1e-20 | | | S | tmp
 SPC_C3H8| cm-3 | xyz | C | | | | |1e-20 | | | S | tmp
 SPC_CCl4| cm-3 | xyz | C | | | | |1e-20 | | | S | tmp
 SPC_CFC11| cm-3 | xyz | C | | | | |1e-20 | | | S | tmp
 SPC_CFC113| cm-3 | xyz | C | | | | |1e-20 | | | S | tmp
 SPC_CFC114| cm-3 | xyz | C | | | | |1e-20 | | | S | tmp
 SPC_CFC115| cm-3 | xyz | C | | | | |1e-20 | | | S | tmp
 SPC_CFC12| cm-3 | xyz | C | | | | |1e-20 | | | S | tmp
 SPC_CH2Br2| cm-3 | xyz | C | | | | |1e-20 | | | S | tmp
 SPC_CH2O| cm-3 | xyz | C | | | | |1e-20 | | | S | tmp
 SPC_CH3Br| cm-3 | xyz | C | | | | |1e-20 | | | S | tmp
 SPC_CH3CCl3| cm-3 | xyz | C | | | | |1e-20 | | | S | tmp
 SPC_CH3Cl| cm-3 | xyz | C | | | | |1e-20 | | | S | tmp
 SPC_CH4| cm-3 | xyz | C | | | | |1e-20 | | | S | tmp
 SPC_CHBr3| cm-3 | xyz | C | | | | |1e-20 | | | S | tmp
 SPC_CO| cm-3 | xyz | C | | | | |1e-20 | | | S | tmp
 SPC_Cl| cm-3 | xyz | C | | | | |1e-20 | | | S | tmp
 SPC_Cl2| cm-3 | xyz | C | | | | |1e-20 | | | S | tmp
 SPC_Cl2O2| cm-3 | xyz | C | | | | |1e-20 | | | S | tmp
 SPC_ClNO2| cm-3 | xyz | C | | | | |1e-20 | | | S | tmp
 SPC_ClNO3| cm-3 | xyz | C | | | | |1e-20 | | | S | tmp
 SPC_ClO| cm-3 | xyz | C | | | | |1e-20 | | | S | tmp
 SPC_ClOO| cm-3 | xyz | C | | | | |1e-20 | | | S | tmp
 SPC_DHMOB| cm-3 | xyz | C | | | | |1e-20 | | | S | tmp
 SPC_DIBOO| cm-3 | xyz | C | | | | |1e-20 | | | S | tmp
 SPC_DMS| cm-3 | xyz | C | | | | |1e-20 | | | S | tmp
 SPC_DRYACET| cm-3 | xyz | C | | | | |1e-20 | | | S | tmp
 SPC_DRYACTA| cm-3 | xyz | C | | | | |1e-20 | | | S | tmp
 SPC_DRYALD2| cm-3 | xyz | C | | | | |1e-20 | | | S | tmp
 SPC_DRYBr2| cm-3 | xyz | C | | | | |1e-20 | | | S | tmp
 SPC_DRYBrNO3| cm-3 | xyz | C | | | | |1e-20 | | | S | tmp
 SPC_DRYCH2O| cm-3 | xyz | C | | | | |1e-20 | | | S | tmp
 SPC_DRYH2O2| cm-3 | xyz | C | | | | |1e-20 | | | S | tmp
 SPC_DRYHAC| cm-3 | xyz | C | | | | |1e-20 | | | S | tmp
 SPC_DRYHBr| cm-3 | xyz | C | | | | |1e-20 | | | S | tmp
 SPC_DRYHCOOH| cm-3 | xyz | C | | | | |1e-20 | | | S | tmp
 SPC_DRYHCl| cm-3 | xyz | C | | | | |1e-20 | | | S | tmp
 SPC_DRYHNO3| cm-3 | xyz | C | | | | |1e-20 | | | S | tmp
 SPC_DRYHOBr| cm-3 | xyz | C | | | | |1e-20 | | | S | tmp
 SPC_DRYIEPOX| cm-3 | xyz | C | | | | |1e-20 | | | S | tmp
 SPC_DRYISOPNB| cm-3 | xyz | C | | | | |1e-20 | | | S | tmp
 SPC_DRYISOPND| cm-3 | xyz | C | | | | |1e-20 | | | S | tmp
 SPC_DRYMACR| cm-3 | xyz | C | | | | |1e-20 | | | S | tmp
 SPC_DRYMACRN| cm-3 | xyz | C | | | | |1e-20 | | | S | tmp
 SPC_DRYMVK| cm-3 | xyz | C | | | | |1e-20 | | | S | tmp
 SPC_DRYMVKN| cm-3 | xyz | C | | | | |1e-20 | | | S | tmp
 SPC_DRYN2O5| cm-3 | xyz | C | | | | |1e-20 | | | S | tmp
 SPC_DRYNO2| cm-3 | xyz | C | | | | |1e-20 | | | S | tmp
 SPC_DRYO3| cm-3 | xyz | C | | | | |1e-20 | | | S | tmp
 SPC_DRYPAN| cm-3 | xyz | C | | | | |1e-20 | | | S | tmp
 SPC_DRYPMN| cm-3 | xyz | C | | | | |1e-20 | | | S | tmp
 SPC_DRYPMNN| cm-3 | xyz | C | | | | |1e-20 | | | S | tmp
 SPC_DRYPPN| cm-3 | xyz | C | | | | |1e-20 | | | S | tmp
 SPC_DRYPROPNN| cm-3 | xyz | C | | | | |1e-20 | | | S | tmp
 SPC_DRYR4N2| cm-3 | xyz | C | | | | |1e-20 | | | S | tmp
 SPC_DRYRIP| cm-3 | xyz | C | | | | |1e-20 | | | S | tmp
 SPC_ETHLN| cm-3 | xyz | C | | | | |1e-20 | | | S | tmp
 SPC_ETO2| cm-3 | xyz | C | | | | |1e-20 | | | S | tmp
 SPC_ETP| cm-3 | xyz | C | | | | |1e-20 | | | S | tmp
 SPC_GLYC| cm-3 | xyz | C | | | | |1e-20 | | | S | tmp
 SPC_GLYX| cm-3 | xyz | C | | | | |1e-20 | | | S | tmp
 SPC_H| cm-3 | xyz | C | | | | |1e-20 | | | S | tmp
 SPC_H1211| cm-3 | xyz | C | | | | |1e-20 | | | S | tmp
 SPC_H1301| cm-3 | xyz | C | | | | |1e-20 | | | S | tmp
 SPC_H2402| cm-3 | xyz | C | | | | |1e-20 | | | S | tmp
 SPC_H2O| cm-3 | xyz | C | | | | |1e-20 | | | S | tmp
 SPC_H2O2| cm-3 | xyz | C | | | | |1e-20 | | | S | tmp
 SPC_HAC| cm-3 | xyz | C | | | | |1e-20 | | | S | tmp
 SPC_HBr| cm-3 | xyz | C | | | | |1e-20 | | | S | tmp
 SPC_HC5| cm-3 | xyz | C | | | | |1e-20 | | | S | tmp
 SPC_HC5OO| cm-3 | xyz | C | | | | |1e-20 | | | S | tmp
 SPC_HCFC123| cm-3 | xyz | C | | | | |1e-20 | | | S | tmp
 SPC_HCFC141b| cm-3 | xyz | C | | | | |1e-20 | | | S | tmp
 SPC_HCFC142b| cm-3 | xyz | C | | | | |1e-20 | | | S | tmp
 SPC_HCFC22| cm-3 | xyz | C | | | | |1e-20 | | | S | tmp
 SPC_HCl| cm-3 | xyz | C | | | | |1e-20 | | | S | tmp
 SPC_HNO2| cm-3 | xyz | C | | | | |1e-20 | | | S | tmp
 SPC_HNO3| cm-3 | xyz | C | | | | |1e-20 | | | S | tmp
 SPC_HNO4| cm-3 | xyz | C | | | | |1e-20 | | | S | tmp
 SPC_HO2| cm-3 | xyz | C | | | | |1e-20 | | | S | tmp
 SPC_HOBr| cm-3 | xyz | C | | | | |1e-20 | | | S | tmp
 SPC_HOCl| cm-3 | xyz | C | | | | |1e-20 | | | S | tmp
 SPC_IAP| cm-3 | xyz | C | | | | |1e-20 | | | S | tmp
 SPC_IEPOX| cm-3 | xyz | C | | | | |1e-20 | | | S | tmp
 SPC_IEPOXOO| cm-3 | xyz | C | | | | |1e-20 | | | S | tmp
 SPC_INO2| cm-3 | xyz | C | | | | |1e-20 | | | S | tmp
 SPC_INPN| cm-3 | xyz | C | | | | |1e-20 | | | S | tmp
 SPC_ISN1| cm-3 | xyz | C | | | | |1e-20 | | | S | tmp
 SPC_ISNOHOO| cm-3 | xyz | C | | | | |1e-20 | | | S | tmp
 SPC_ISNOOA| cm-3 | xyz | C | | | | |1e-20 | | | S | tmp
 SPC_ISNOOB| cm-3 | xyz | C | | | | |1e-20 | | | S | tmp
 SPC_ISNP| cm-3 | xyz | C | | | | |1e-20 | | | S | tmp
 SPC_ISOP| cm-3 | xyz | C | | | | |1e-20 | | | S | tmp
 SPC_ISOPNB| cm-3 | xyz | C | | | | |1e-20 | | | S | tmp
 SPC_ISOPNBO2| cm-3 | xyz | C | | | | |1e-20 | | | S | tmp
 SPC_ISOPND| cm-3 | xyz | C | | | | |1e-20 | | | S | tmp
 SPC_ISOPNDO2| cm-3 | xyz | C | | | | |1e-20 | | | S | tmp
 SPC_KO2| cm-3 | xyz | C | | | | |1e-20 | | | S | tmp
 SPC_LISOPOH| cm-3 | xyz | C | | | | |1e-20 | | | S | tmp
 SPC_MACR| cm-3 | xyz | C | | | | |1e-20 | | | S | tmp
 SPC_MACRN| cm-3 | xyz | C | | | | |1e-20 | | | S | tmp
 SPC_MACRNO2| cm-3 | xyz | C | | | | |1e-20 | | | S | tmp
 SPC_MAN2| cm-3 | xyz | C | | | | |1e-20 | | | S | tmp
 SPC_MAO3| cm-3 | xyz | C | | | | |1e-20 | | | S | tmp
 SPC_MAOP| cm-3 | xyz | C | | | | |1e-20 | | | S | tmp
 SPC_MAOPO2| cm-3 | xyz | C | | | | |1e-20 | | | S | tmp
 SPC_MAP| cm-3 | xyz | C | | | | |1e-20 | | | S | tmp
 SPC_MCO3| cm-3 | xyz | C | | | | |1e-20 | | | S | tmp
 SPC_MEK| cm-3 | xyz | C | | | | |1e-20 | | | S | tmp
 SPC_MGLY| cm-3 | xyz | C | | | | |1e-20 | | | S | tmp
 SPC_MO2| cm-3 | xyz | C | | | | |1e-20 | | | S | tmp
 SPC_MOBA| cm-3 | xyz | C | | | | |1e-20 | | | S | tmp
 SPC_MOBAOO| cm-3 | xyz | C | | | | |1e-20 | | | S | tmp
 SPC_MP| cm-3 | xyz | C | | | | |1e-20 | | | S | tmp
 SPC_MPN| cm-3 | xyz | C | | | | |1e-20 | | | S | tmp
 SPC_MRO2| cm-3 | xyz | C | | | | |1e-20 | | | S | tmp
 SPC_MRP| cm-3 | xyz | C | | | | |1e-20 | | | S | tmp
 SPC_MSA| cm-3 | xyz | C | | | | |1e-20 | | | S | tmp
 SPC_MVK| cm-3 | xyz | C | | | | |1e-20 | | | S | tmp
 SPC_MVKN| cm-3 | xyz | C | | | | |1e-20 | | | S | tmp
 SPC_N_ | cm-3 | xyz | C | | | | |1e-20 | | | S | Atomic Nitrogen (stratchem)
 SPC_N2O| cm-3 | xyz | C | | | | |1e-20 | | | S | tmp
 SPC_N2O5| cm-3 | xyz | C | | | | |1e-20 | | | S | tmp
 SPC_NO| cm-3 | xyz | C | | | | |1e-20 | | | S | tmp
 SPC_NO2| cm-3 | xyz | C | | | | |1e-20 | | | S | tmp
 SPC_NO3| cm-3 | xyz | C | | | | |1e-20 | | | S | tmp
 SPC_O| cm-3 | xyz | C | | | | |1e-20 | | | S | tmp
 SPC_O1D| cm-3 | xyz | C | | | | |1e-20 | | | S | tmp
 SPC_O3| cm-3 | xyz | C | | | | |1e-20 | | | S | tmp
 SPC_OCS| cm-3 | xyz | C | | | | |1e-20 | | | S | tmp
 SPC_OClO| cm-3 | xyz | C | | | | |1e-20 | | | S | tmp
 SPC_OH| cm-3 | xyz | C | | | | |1e-20 | | | S | tmp
 SPC_PAN| cm-3 | xyz | C | | | | |1e-20 | | | S | tmp
 SPC_PMN| cm-3 | xyz | C | | | | |1e-20 | | | S | tmp
 SPC_PMNN| cm-3 | xyz | C | | | | |1e-20 | | | S | tmp
 SPC_PMNO2| cm-3 | xyz | C | | | | |1e-20 | | | S | tmp
 SPC_PO2| cm-3 | xyz | C | | | | |1e-20 | | | S | tmp
 SPC_PP| cm-3 | xyz | C | | | | |1e-20 | | | S | tmp
 SPC_PPN| cm-3 | xyz | C | | | | |1e-20 | | | S | tmp
 SPC_PRN1| cm-3 | xyz | C | | | | |1e-20 | | | S | tmp
 SPC_PROPNN| cm-3 | xyz | C | | | | |1e-20 | | | S | tmp
 SPC_PRPE| cm-3 | xyz | C | | | | |1e-20 | | | S | tmp
 SPC_PRPN| cm-3 | xyz | C | | | | |1e-20 | | | S | tmp
 SPC_PYAC| cm-3 | xyz | C | | | | |1e-20 | | | S | tmp
 SPC_R4N1| cm-3 | xyz | C | | | | |1e-20 | | | S | tmp
 SPC_R4N2| cm-3 | xyz | C | | | | |1e-20 | | | S | tmp
 SPC_R4O2| cm-3 | xyz | C | | | | |1e-20 | | | S | tmp
 SPC_R4P| cm-3 | xyz | C | | | | |1e-20 | | | S | tmp
 SPC_RA3P| cm-3 | xyz | C | | | | |1e-20 | | | S | tmp
 SPC_RB3P| cm-3 | xyz | C | | | | |1e-20 | | | S | tmp
 SPC_RCHO| cm-3 | xyz | C | | | | |1e-20 | | | S | tmp
 SPC_RCO3| cm-3 | xyz | C | | | | |1e-20 | | | S | tmp
 SPC_RIO2| cm-3 | xyz | C | | | | |1e-20 | | | S | tmp
 SPC_RIP| cm-3 | xyz | C | | | | |1e-20 | | | S | tmp
 SPC_ROH| cm-3 | xyz | C | | | | |1e-20 | | | S | tmp
 SPC_RP| cm-3 | xyz | C | | | | |1e-20 | | | S | tmp
 SPC_SO2| cm-3 | xyz | C | | | | |1e-20 | | | S | tmp
 SPC_SO4| cm-3 | xyz | C | | | | |1e-20 | | | S | tmp
 SPC_VRO2| cm-3 | xyz | C | | | | |1e-20 | | | S | tmp
 SPC_VRP| cm-3 | xyz | C | | | | |1e-20 | | | S | tmp
# --------------|------------|-----|---|----|---|---|-----|------|----|----|---------|---------------------------------
</InternalSpec>
