#
# This the GEOS-CHEM Grid Component Registry. It defines Import,
# Internal and Export states for this component as well as
# any
#
# !REVISION HISTORY:
#  16Aug2006  da Silva   First Version
#  30Jun2012  Nielsen    For Ganymed
#  10Oct2012  Yantosca   Updated for GEOS-Chem v9-01-03, which has new
#                        Bromine compounds as advected tracers & species
#  25Sep2013  Keller     Updated for GEOS-Chem v9-02l (NOx and Ox not lumped anymore, Isoprene                         update) 
#
# -----------------------------------------------------------------

  COMP_NAME: GIGCchem

# Only change the Registry version when major structural changes
# occurs, not changes in content
# --------------------------------------------------------------
  MAPL_REGISTRY_VERSION: 1.00

#				------------
#				Import State
#				------------

<ImportSpec name="GEOSCHEMCHEM", cols="short_name,units,dims,vlocation,stat,refresh_interval,averaging_interval,num_subtiles,default,long_name">
# -------------------|-------------|-----|---|----|---|---|-----|------|--------------------------
#  Short	     |  	   |	 | V |Item|Intervl| Sub | Def  |	Long
#  Name 	     |   Units     | Dim |Loc|Type| R | A |Tiles| ault |	Name
# -------------------|-------------|-----|---|----|---|---|-----|------|--------------------------
  FRLAKE             |     1	   | xy  |   |    |   |   |	|      | 
  FRLAND             |     1	   | xy  |   |    |   |   |	|      | 
  FRLANDIC           |     1	   | xy  |   |    |   |   |	|      | 
  FROCEAN            |     1	   | xy  |   |    |   |   |	|      | 
  PHIS               |     1	   | xy  |   |    |   |   |	|      | 
  ALBD               |     1	   | xy  |   |    |   |   |	|      | surface_albedo_for_visible_diffuse
  CLDFRC             |     1	   | xy  |   |    |   |   |	|      | 
  EFLUX              |     1	   | xy  |   |    |   |   |	|      | 
  EVAP               |     1	   | xy  |   |    |   |   |	|      | 
  FRSEAICE           |     1	   | xy  |   |    |   |   |	|      | 
  FRSNO              |     1	   | xy  |   |    |   |   |	|      | 
  GRN                |     1	   | xy  |   |    |   |   |	|      | 
  GWETROOT           |     1	   | xy  |   |    |   |   |	|      | 
  GWETTOP            |     1	   | xy  |   |    |   |   |	|      | 
  HFLUX              |     1	   | xy  |   |    |   |   |	|      | 
  LAI                |     1	   | xy  |   |    |   |   |	|      | 
  LWI                |     1	   | xy  |   |    |   |   |	|      | 
  RADLWG             |     1	   | xy  |   |    |   |   |	|      | 
  PARDF              |     1	   | xy  |   |    |   |   |	|      | 
  PARDR              |     1	   | xy  |   |    |   |   |	|      | 
  PBLH               |     1	   | xy  |   |    |   |   |	|      | 
  PRECANV            |     1	   | xy  |   |    |   |   |	|      | 
  PRECCON            |     1	   | xy  |   |    |   |   |	|      | 
  PRECLSC            |     1	   | xy  |   |    |   |   |	|      | 
  PRECSNO            |     1	   | xy  |   |    |   |   |	|      | 
  PRECTOT            |     1	   | xy  |   |    |   |   |	|      | 
  SEAICE00           |     1	   | xy  |   |    |   |   |	|      | 
  SEAICE10           |     1	   | xy  |   |    |   |   |	|      | 
  SEAICE20           |     1	   | xy  |   |    |   |   |	|      | 
  SEAICE30           |     1	   | xy  |   |    |   |   |	|      | 
  SEAICE40           |     1	   | xy  |   |    |   |   |	|      | 
  SEAICE50           |     1	   | xy  |   |    |   |   |	|      | 
  SEAICE60           |     1	   | xy  |   |    |   |   |	|      | 
  SEAICE70           |     1	   | xy  |   |    |   |   |	|      | 
  SEAICE80           |     1	   | xy  |   |    |   |   |	|      | 
  SEAICE90           |     1	   | xy  |   |    |   |   |	|      | 
  SLP                |     1	   | xy  |   |    |   |   |	|      | 
  SNODP              |     1	   | xy  |   |    |   |   |	|      | 
  SNOMAS             |     1	   | xy  |   |    |   |   |	|      | 
  RADSWG             |     1	   | xy  |   |    |   |   |	|      | 
  TROPP              |     1	   | xy  |   |    |   |   |	|      | 
  TSKIN              |     1	   | xy  |   |    |   |   |	|      | 
  TS                 |     1	   | xy  |   |    |   |   |	|      | 
  U10M               |     1	   | xy  |   |    |   |   |	|      | 
  USTAR              |     1	   | xy  |   |    |   |   |	|      | 
  V10M               |     1	   | xy  |   |    |   |   |	|      | 
  Z0                 |     1	   | xy  |   |    |   |   |	|      | 
  PS1                |     1	   | xy  |   |    |   |   |	|      | 
#  PS2                |     1	   | xy  |   |    |   |   |	|      | 
  OPTDEP             |     1	   | xyz | C |    |   |   |	|      | 
  CLDF               |     1	   | xyz | C |    |   |   |	|      | 
  QI                 |     1	   | xyz | C |    |   |   |	|      | 
  QL                 |     1	   | xyz | C |    |   |   |	|      | 
  TAUCLI             |     1	   | xyz | C |    |   |   |	|      | 
  TAUCLW             |     1	   | xyz | C |    |   |   |	|      | 
  CMFMC              |     1	   | xyz | E |    |   |   |	|      | 
  DTRAIN             |     1	   | xyz | C |    |   |   |	|      | 
  RH                 |     1	   | xyz | C |    |   |   |	|      | 
  DQRCU              |     1	   | xyz | C |    |   |   |	|      | 
  DQRLSAN            |     1	   | xyz | C |    |   |   |	|      | 
  REEVAPCN           |     1	   | xyz | C |    |   |   |	|      | 
  REEVAPLS           |     1	   | xyz | C |    |   |   |	|      | 
  PFICU              |     1	   | xyz | C |    |   |   |	|      | 
  PFILSAN            |     1	   | xyz | C |    |   |   |	|      | 
  PFLCU              |     1	   | xyz | C |    |   |   |	|      | 
  PFLLSAN            |     1	   | xyz | C |    |   |   |	|      | 
  SPHU1              |     1	   | xyz | C |    |   |   |	|      | 
  TMPU1              |     1	   | xyz | C |    |   |   |	|      | 
  SPHU2              |     1	   | xyz | C |    |   |   |	|      | 
  TMPU2              |     1	   | xyz | C |    |   |   |	|      | 
# -------------------|-------------|-----|---|----|---|---|-----|------|--------------------------
</ImportSpec>

#				------------
#				Export State
#				------------

<ExportSpec name="GEOSCHEMCHEM", cols="short_name,units,dims,vlocation,stat,refresh_interval,averaging_interval,num_subtiles,long_name">
# ------------------|----------------|-----|---|----|---|---|-----|---------------------------------
#  Short	    |		     |     | V |Item|Intervl| Sub |	     Long
#  Name 	    |   Units	     | Dim |Loc|Type| R | A |Tiles|	     Name
# ------------------|----------------|-----|---|----|---|---|-----|---------------------------------
#  OX                | mol mol-1      | xyz | C |    |   |   |     | ozone_volume_mixing_ratio
  O3_EXP            | kg kg-1        | xyz | C |    |   |   |     | ozone_mass_mixing_ratio
  O3PPMV    	    | ppmv           | xyz | C |    |	|   |	  | ozone_volume_mixing_ratio_in_ppm
  OX_TEND    	    | kg kg-1 s-1    | xyz | C |    |	|   |	  | tendency_of_odd_oxygen_mixing_ratio_due_to_chemistry
  H2O_TEND    	    | kg kg-1 s-1    | xyz | C |    |	|   |	  | tendency_of_water_vapor_mixing_ratio_due_to_chemistry
  GCCTO3    	    | dobsons        | xy  |   |    |	|   |	  | total_ozone 
  GCCTTO3           | dobsons        | xy  |   |    |	|   |	  | total_tropospheric_ozone 
# ------------------|----------------|-----|---|----|---|---|-----|---------------------------------
</ExportSpec>
#                               --------------
#                               Internal State
#                               --------------
#
# Note: 1) For friendlies, use "D" for dynamics, "T" for turbulence, "C" for convection, S=self (adds to export); leave blank otherwise
#       2) If quantity requires no restart, put an 'x' in the No Rst column
#       3) RO = Alkoxy radical, RO2 = Organic peroxy radical
<InternalSpec name="GEOSCHEMCHEM", cols="short_name,units,dims,vlocation,stat,refresh_interval,averaging_interval,num_subtiles,default,norestart,halowidth,friendlyto,long_name">
# --------------|------------|-----|---|----|---|---|-----|------|----|----|---------|---------------------------------
#  Short        |            |     | V |Item|Intervl| Sub | Def  | No | Ha | Friends |            Long
#  Name         |   Units    | Dim |Loc|Type| R | A |Tiles| ault | Rst| lo |         |            Name
# --------------|------------|-----|---|----|---|---|-----|------|----|----|---------|---------------------------------
   GCCTROPP     |    Pa      | xy  |   |    |   |   |     |      |    |    | S          | tropopause_pressure_used_in_GEOS-Chem
 TRC_NO| mol mol-1 | xyz | C | | | | | | | |  | tmp
 TRC_O3| mol mol-1 | xyz | C | | | | | | | |  | tmp
 TRC_PAN| mol mol-1 | xyz | C | | | | | | | |  | tmp
 TRC_CO| mol mol-1 | xyz | C | | | | | | | |  | tmp
 TRC_ALK4| mol mol-1 | xyz | C | | | | | | | |  | tmp
 TRC_ISOP| mol mol-1 | xyz | C | | | | | | | |  | tmp
 TRC_HNO3| mol mol-1 | xyz | C | | | | | | | |  | tmp
 TRC_H2O2| mol mol-1 | xyz | C | | | | | | | |  | tmp
 TRC_ACET| mol mol-1 | xyz | C | | | | | | | |  | tmp
 TRC_MEK| mol mol-1 | xyz | C | | | | | | | |  | tmp
 TRC_ALD2| mol mol-1 | xyz | C | | | | | | | |  | tmp
 TRC_RCHO| mol mol-1 | xyz | C | | | | | | | |  | tmp
 TRC_MVK| mol mol-1 | xyz | C | | | | | | | |  | tmp
 TRC_MACR| mol mol-1 | xyz | C | | | | | | | |  | tmp
 TRC_PMN| mol mol-1 | xyz | C | | | | | | | |  | tmp
 TRC_PPN| mol mol-1 | xyz | C | | | | | | | |  | tmp
 TRC_R4N2| mol mol-1 | xyz | C | | | | | | | |  | tmp
 TRC_PRPE| mol mol-1 | xyz | C | | | | | | | |  | tmp
 TRC_C3H8| mol mol-1 | xyz | C | | | | | | | |  | tmp
 TRC_CH2O| mol mol-1 | xyz | C | | | | | | | |  | tmp
 TRC_C2H6| mol mol-1 | xyz | C | | | | | | | |  | tmp
 TRC_N2O5| mol mol-1 | xyz | C | | | | | | | |  | tmp
 TRC_HNO4| mol mol-1 | xyz | C | | | | | | | |  | tmp
 TRC_MP| mol mol-1 | xyz | C | | | | | | | |  | tmp
 TRC_DMS| mol mol-1 | xyz | C | | | | | | | |  | tmp
 TRC_SO2| mol mol-1 | xyz | C | | | | | | | |  | tmp
 TRC_SO4| mol mol-1 | xyz | C | | | | | | | |  | tmp
 TRC_SO4s| mol mol-1 | xyz | C | | | | | | | |  | tmp
 TRC_MSA| mol mol-1 | xyz | C | | | | | | | |  | tmp
 TRC_NH3| mol mol-1 | xyz | C | | | | | | | |  | tmp
 TRC_NH4| mol mol-1 | xyz | C | | | | | | | |  | tmp
 TRC_NIT| mol mol-1 | xyz | C | | | | | | | |  | tmp
 TRC_NITs| mol mol-1 | xyz | C | | | | | | | |  | tmp
 TRC_BCPI| mol mol-1 | xyz | C | | | | | | | |  | tmp
 TRC_OCPI| mol mol-1 | xyz | C | | | | | | | |  | tmp
 TRC_BCPO| mol mol-1 | xyz | C | | | | | | | |  | tmp
 TRC_OCPO| mol mol-1 | xyz | C | | | | | | | |  | tmp
 TRC_DST1| mol mol-1 | xyz | C | | | | | | | |  | tmp
 TRC_DST2| mol mol-1 | xyz | C | | | | | | | |  | tmp
 TRC_DST3| mol mol-1 | xyz | C | | | | | | | |  | tmp
 TRC_DST4| mol mol-1 | xyz | C | | | | | | | |  | tmp
 TRC_SALA| mol mol-1 | xyz | C | | | | | | | |  | tmp
 TRC_SALC| mol mol-1 | xyz | C | | | | | | | |  | tmp
 TRC_Br2| mol mol-1 | xyz | C | | | | | | | |  | tmp
 TRC_Br| mol mol-1 | xyz | C | | | | | | | |  | tmp
 TRC_BrO| mol mol-1 | xyz | C | | | | | | | |  | tmp
 TRC_HOBr| mol mol-1 | xyz | C | | | | | | | |  | tmp
 TRC_HBr| mol mol-1 | xyz | C | | | | | | | |  | tmp
 TRC_BrNO2| mol mol-1 | xyz | C | | | | | | | |  | tmp
 TRC_BrNO3| mol mol-1 | xyz | C | | | | | | | |  | tmp
 TRC_CHBr3| mol mol-1 | xyz | C | | | | | | | |  | tmp
 TRC_CH2Br2| mol mol-1 | xyz | C | | | | | | | |  | tmp
 TRC_CH3Br| mol mol-1 | xyz | C | | | | | | | |  | tmp
 TRC_MPN| mol mol-1 | xyz | C | | | | | | | |  | tmp
 TRC_ISOPN| mol mol-1 | xyz | C | | | | | | | |  | tmp
 TRC_MOBA| mol mol-1 | xyz | C | | | | | | | |  | tmp
 TRC_PROPNN| mol mol-1 | xyz | C | | | | | | | |  | tmp
 TRC_HAC| mol mol-1 | xyz | C | | | | | | | |  | tmp
 TRC_GLYC| mol mol-1 | xyz | C | | | | | | | |  | tmp
 TRC_MMN| mol mol-1 | xyz | C | | | | | | | |  | tmp
 TRC_RIP| mol mol-1 | xyz | C | | | | | | | |  | tmp
 TRC_IEPOX| mol mol-1 | xyz | C | | | | | | | |  | tmp
 TRC_MAP| mol mol-1 | xyz | C | | | | | | | |  | tmp
 TRC_NO2| mol mol-1 | xyz | C | | | | | | | |  | tmp
 TRC_NO3| mol mol-1 | xyz | C | | | | | | | |  | tmp
 TRC_HNO2| mol mol-1 | xyz | C | | | | | | | |  | tmp
 TRC_N2O| mol mol-1 | xyz | C | | | | | | | |  | tmp
 TRC_OCS| mol mol-1 | xyz | C | | | | | | | |  | tmp
 TRC_CH4| mol mol-1 | xyz | C | | | | | | | |  | tmp
 TRC_BrCl| mol mol-1 | xyz | C | | | | | | | |  | tmp
 TRC_HCl| mol mol-1 | xyz | C | | | | | | | |  | tmp
 TRC_CCl4| mol mol-1 | xyz | C | | | | | | | |  | tmp
 TRC_CH3Cl| mol mol-1 | xyz | C | | | | | | | |  | tmp
 TRC_CH3CCl3| mol mol-1 | xyz | C | | | | | | | |  | tmp
 TRC_CFCX| mol mol-1 | xyz | C | | | | | | | |  | tmp
 TRC_HCFCX| mol mol-1 | xyz | C | | | | | | | |  | tmp
 TRC_CFC11| mol mol-1 | xyz | C | | | | | | | |  | tmp
 TRC_CFC12| mol mol-1 | xyz | C | | | | | | | |  | tmp
 TRC_HCFC22| mol mol-1 | xyz | C | | | | | | | |  | tmp
 TRC_H1211| mol mol-1 | xyz | C | | | | | | | |  | tmp
 TRC_H1301| mol mol-1 | xyz | C | | | | | | | |  | tmp
 TRC_H2402| mol mol-1 | xyz | C | | | | | | | |  | tmp
 TRC_Cl| mol mol-1 | xyz | C | | | | | | | |  | tmp
 TRC_ClO| mol mol-1 | xyz | C | | | | | | | |  | tmp
 TRC_HOCl| mol mol-1 | xyz | C | | | | | | | |  | tmp
 TRC_ClNO3| mol mol-1 | xyz | C | | | | | | | |  | tmp
 TRC_ClNO2| mol mol-1 | xyz | C | | | | | | | |  | tmp
 TRC_ClOO| mol mol-1 | xyz | C | | | | | | | |  | tmp
 TRC_OClO| mol mol-1 | xyz | C | | | | | | | |  | tmp
 TRC_Cl2| mol mol-1 | xyz | C | | | | | | | |  | tmp
 TRC_Cl2O2| mol mol-1 | xyz | C | | | | | | | |  | tmp
 TRC_H2O| mol mol-1 | xyz | C | | | | | | | |  | tmp
 A3O2| cm-3 | xyz | C | | | | |1e-20 | | | S | tmp
 ACET| cm-3 | xyz | C | | | | |1e-20 | | | S | tmp
 ALD2| cm-3 | xyz | C | | | | |1e-20 | | | S | tmp
 ALK4| cm-3 | xyz | C | | | | |1e-20 | | | S | tmp
 ATO2| cm-3 | xyz | C | | | | |1e-20 | | | S | tmp
 ATOOH| cm-3 | xyz | C | | | | |1e-20 | | | S | tmp
 B3O2| cm-3 | xyz | C | | | | |1e-20 | | | S | tmp
 Br| cm-3 | xyz | C | | | | |1e-20 | | | S | tmp
 Br2| cm-3 | xyz | C | | | | |1e-20 | | | S | tmp
 BrCl| cm-3 | xyz | C | | | | |1e-20 | | | S | tmp
 BrNO2| cm-3 | xyz | C | | | | |1e-20 | | | S | tmp
 BrNO3| cm-3 | xyz | C | | | | |1e-20 | | | S | tmp
 BrO| cm-3 | xyz | C | | | | |1e-20 | | | S | tmp
 C2H6| cm-3 | xyz | C | | | | |1e-20 | | | S | tmp
 C3H8| cm-3 | xyz | C | | | | |1e-20 | | | S | tmp
 CCl4| cm-3 | xyz | C | | | | |1e-20 | | | S | tmp
 CFC11| cm-3 | xyz | C | | | | |1e-20 | | | S | tmp
 CFC113| cm-3 | xyz | C | | | | |1e-20 | | | S | tmp
 CFC114| cm-3 | xyz | C | | | | |1e-20 | | | S | tmp
 CFC115| cm-3 | xyz | C | | | | |1e-20 | | | S | tmp
 CFC12| cm-3 | xyz | C | | | | |1e-20 | | | S | tmp
 CH2Br2| cm-3 | xyz | C | | | | |1e-20 | | | S | tmp
 CH2O| cm-3 | xyz | C | | | | |1e-20 | | | S | tmp
 CH3Br| cm-3 | xyz | C | | | | |1e-20 | | | S | tmp
 CH3CCl3| cm-3 | xyz | C | | | | |1e-20 | | | S | tmp
 CH3Cl| cm-3 | xyz | C | | | | |1e-20 | | | S | tmp
 CH4| cm-3 | xyz | C | | | | |1e-20 | | | S | tmp
 CHBr3| cm-3 | xyz | C | | | | |1e-20 | | | S | tmp
 CO| cm-3 | xyz | C | | | | |1e-20 | | | S | tmp
 Cl| cm-3 | xyz | C | | | | |1e-20 | | | S | tmp
 Cl2| cm-3 | xyz | C | | | | |1e-20 | | | S | tmp
 Cl2O2| cm-3 | xyz | C | | | | |1e-20 | | | S | tmp
 ClNO2| cm-3 | xyz | C | | | | |1e-20 | | | S | tmp
 ClNO3| cm-3 | xyz | C | | | | |1e-20 | | | S | tmp
 ClO| cm-3 | xyz | C | | | | |1e-20 | | | S | tmp
 ClOO| cm-3 | xyz | C | | | | |1e-20 | | | S | tmp
 DHMOB| cm-3 | xyz | C | | | | |1e-20 | | | S | tmp
 DIBOO| cm-3 | xyz | C | | | | |1e-20 | | | S | tmp
 DMS| cm-3 | xyz | C | | | | |1e-20 | | | S | tmp
 DRYACET| cm-3 | xyz | C | | | | |1e-20 | | | S | tmp
 DRYACTA| cm-3 | xyz | C | | | | |1e-20 | | | S | tmp
 DRYALD2| cm-3 | xyz | C | | | | |1e-20 | | | S | tmp
 DRYBr2| cm-3 | xyz | C | | | | |1e-20 | | | S | tmp
 DRYBrNO3| cm-3 | xyz | C | | | | |1e-20 | | | S | tmp
 DRYCH2O| cm-3 | xyz | C | | | | |1e-20 | | | S | tmp
 DRYH2O2| cm-3 | xyz | C | | | | |1e-20 | | | S | tmp
 DRYHAC| cm-3 | xyz | C | | | | |1e-20 | | | S | tmp
 DRYHBr| cm-3 | xyz | C | | | | |1e-20 | | | S | tmp
 DRYHCOOH| cm-3 | xyz | C | | | | |1e-20 | | | S | tmp
 DRYHCl| cm-3 | xyz | C | | | | |1e-20 | | | S | tmp
 DRYHNO3| cm-3 | xyz | C | | | | |1e-20 | | | S | tmp
 DRYHOBr| cm-3 | xyz | C | | | | |1e-20 | | | S | tmp
 DRYIEPOX| cm-3 | xyz | C | | | | |1e-20 | | | S | tmp
 DRYISOPNB| cm-3 | xyz | C | | | | |1e-20 | | | S | tmp
 DRYISOPND| cm-3 | xyz | C | | | | |1e-20 | | | S | tmp
 DRYMACR| cm-3 | xyz | C | | | | |1e-20 | | | S | tmp
 DRYMACRN| cm-3 | xyz | C | | | | |1e-20 | | | S | tmp
 DRYMVK| cm-3 | xyz | C | | | | |1e-20 | | | S | tmp
 DRYMVKN| cm-3 | xyz | C | | | | |1e-20 | | | S | tmp
 DRYN2O5| cm-3 | xyz | C | | | | |1e-20 | | | S | tmp
 DRYNO2| cm-3 | xyz | C | | | | |1e-20 | | | S | tmp
 DRYO3| cm-3 | xyz | C | | | | |1e-20 | | | S | tmp
 DRYPAN| cm-3 | xyz | C | | | | |1e-20 | | | S | tmp
 DRYPMN| cm-3 | xyz | C | | | | |1e-20 | | | S | tmp
 DRYPMNN| cm-3 | xyz | C | | | | |1e-20 | | | S | tmp
 DRYPPN| cm-3 | xyz | C | | | | |1e-20 | | | S | tmp
 DRYPROPNN| cm-3 | xyz | C | | | | |1e-20 | | | S | tmp
 DRYR4N2| cm-3 | xyz | C | | | | |1e-20 | | | S | tmp
 DRYRIP| cm-3 | xyz | C | | | | |1e-20 | | | S | tmp
 ETHLN| cm-3 | xyz | C | | | | |1e-20 | | | S | tmp
 ETO2| cm-3 | xyz | C | | | | |1e-20 | | | S | tmp
 ETP| cm-3 | xyz | C | | | | |1e-20 | | | S | tmp
 GLYC| cm-3 | xyz | C | | | | |1e-20 | | | S | tmp
 GLYX| cm-3 | xyz | C | | | | |1e-20 | | | S | tmp
 H| cm-3 | xyz | C | | | | |1e-20 | | | S | tmp
 H1211| cm-3 | xyz | C | | | | |1e-20 | | | S | tmp
 H1301| cm-3 | xyz | C | | | | |1e-20 | | | S | tmp
 H2402| cm-3 | xyz | C | | | | |1e-20 | | | S | tmp
 H2O| cm-3 | xyz | C | | | | |1e-20 | | | S | tmp
 H2O2| cm-3 | xyz | C | | | | |1e-20 | | | S | tmp
 HAC| cm-3 | xyz | C | | | | |1e-20 | | | S | tmp
 HBr| cm-3 | xyz | C | | | | |1e-20 | | | S | tmp
 HC5| cm-3 | xyz | C | | | | |1e-20 | | | S | tmp
 HC5OO| cm-3 | xyz | C | | | | |1e-20 | | | S | tmp
 HCFC123| cm-3 | xyz | C | | | | |1e-20 | | | S | tmp
 HCFC141b| cm-3 | xyz | C | | | | |1e-20 | | | S | tmp
 HCFC142b| cm-3 | xyz | C | | | | |1e-20 | | | S | tmp
 HCFC22| cm-3 | xyz | C | | | | |1e-20 | | | S | tmp
 HCl| cm-3 | xyz | C | | | | |1e-20 | | | S | tmp
 HNO2| cm-3 | xyz | C | | | | |1e-20 | | | S | tmp
 HNO3| cm-3 | xyz | C | | | | |1e-20 | | | S | tmp
 HNO4| cm-3 | xyz | C | | | | |1e-20 | | | S | tmp
 HO2| cm-3 | xyz | C | | | | |1e-20 | | | S | tmp
 HOBr| cm-3 | xyz | C | | | | |1e-20 | | | S | tmp
 HOCl| cm-3 | xyz | C | | | | |1e-20 | | | S | tmp
 IAP| cm-3 | xyz | C | | | | |1e-20 | | | S | tmp
 IEPOX| cm-3 | xyz | C | | | | |1e-20 | | | S | tmp
 IEPOXOO| cm-3 | xyz | C | | | | |1e-20 | | | S | tmp
 INO2| cm-3 | xyz | C | | | | |1e-20 | | | S | tmp
 INPN| cm-3 | xyz | C | | | | |1e-20 | | | S | tmp
 ISN1| cm-3 | xyz | C | | | | |1e-20 | | | S | tmp
 ISNOHOO| cm-3 | xyz | C | | | | |1e-20 | | | S | tmp
 ISNOOA| cm-3 | xyz | C | | | | |1e-20 | | | S | tmp
 ISNOOB| cm-3 | xyz | C | | | | |1e-20 | | | S | tmp
 ISNP| cm-3 | xyz | C | | | | |1e-20 | | | S | tmp
 ISOP| cm-3 | xyz | C | | | | |1e-20 | | | S | tmp
 ISOPNB| cm-3 | xyz | C | | | | |1e-20 | | | S | tmp
 ISOPNBO2| cm-3 | xyz | C | | | | |1e-20 | | | S | tmp
 ISOPND| cm-3 | xyz | C | | | | |1e-20 | | | S | tmp
 ISOPNDO2| cm-3 | xyz | C | | | | |1e-20 | | | S | tmp
 KO2| cm-3 | xyz | C | | | | |1e-20 | | | S | tmp
 LISOPOH| cm-3 | xyz | C | | | | |1e-20 | | | S | tmp
 MACR| cm-3 | xyz | C | | | | |1e-20 | | | S | tmp
 MACRN| cm-3 | xyz | C | | | | |1e-20 | | | S | tmp
 MACRNO2| cm-3 | xyz | C | | | | |1e-20 | | | S | tmp
 MAN2| cm-3 | xyz | C | | | | |1e-20 | | | S | tmp
 MAO3| cm-3 | xyz | C | | | | |1e-20 | | | S | tmp
 MAOP| cm-3 | xyz | C | | | | |1e-20 | | | S | tmp
 MAOPO2| cm-3 | xyz | C | | | | |1e-20 | | | S | tmp
 MAP| cm-3 | xyz | C | | | | |1e-20 | | | S | tmp
 MCO3| cm-3 | xyz | C | | | | |1e-20 | | | S | tmp
 MEK| cm-3 | xyz | C | | | | |1e-20 | | | S | tmp
 MGLY| cm-3 | xyz | C | | | | |1e-20 | | | S | tmp
 MO2| cm-3 | xyz | C | | | | |1e-20 | | | S | tmp
 MOBA| cm-3 | xyz | C | | | | |1e-20 | | | S | tmp
 MOBAOO| cm-3 | xyz | C | | | | |1e-20 | | | S | tmp
 MP| cm-3 | xyz | C | | | | |1e-20 | | | S | tmp
 MPN| cm-3 | xyz | C | | | | |1e-20 | | | S | tmp
 MRO2| cm-3 | xyz | C | | | | |1e-20 | | | S | tmp
 MRP| cm-3 | xyz | C | | | | |1e-20 | | | S | tmp
 MSA| cm-3 | xyz | C | | | | |1e-20 | | | S | tmp
 MVK| cm-3 | xyz | C | | | | |1e-20 | | | S | tmp
 MVKN| cm-3 | xyz | C | | | | |1e-20 | | | S | tmp
 N_ | cm-3 | xyz | C | | | | |1e-20 | | | S | Atomic Nitrogen (stratchem)
 N2O| cm-3 | xyz | C | | | | |1e-20 | | | S | tmp
 N2O5| cm-3 | xyz | C | | | | |1e-20 | | | S | tmp
 NO| cm-3 | xyz | C | | | | |1e-20 | | | S | tmp
 NO2| cm-3 | xyz | C | | | | |1e-20 | | | S | tmp
 NO3| cm-3 | xyz | C | | | | |1e-20 | | | S | tmp
 O| cm-3 | xyz | C | | | | |1e-20 | | | S | tmp
 O1D| cm-3 | xyz | C | | | | |1e-20 | | | S | tmp
 O3| cm-3 | xyz | C | | | | |1e-20 | | | S | tmp
 OCS| cm-3 | xyz | C | | | | |1e-20 | | | S | tmp
 OClO| cm-3 | xyz | C | | | | |1e-20 | | | S | tmp
 OH| cm-3 | xyz | C | | | | |1e-20 | | | S | tmp
 PAN| cm-3 | xyz | C | | | | |1e-20 | | | S | tmp
 PMN| cm-3 | xyz | C | | | | |1e-20 | | | S | tmp
 PMNN| cm-3 | xyz | C | | | | |1e-20 | | | S | tmp
 PMNO2| cm-3 | xyz | C | | | | |1e-20 | | | S | tmp
 PO2| cm-3 | xyz | C | | | | |1e-20 | | | S | tmp
 PP| cm-3 | xyz | C | | | | |1e-20 | | | S | tmp
 PPN| cm-3 | xyz | C | | | | |1e-20 | | | S | tmp
 PRN1| cm-3 | xyz | C | | | | |1e-20 | | | S | tmp
 PROPNN| cm-3 | xyz | C | | | | |1e-20 | | | S | tmp
 PRPE| cm-3 | xyz | C | | | | |1e-20 | | | S | tmp
 PRPN| cm-3 | xyz | C | | | | |1e-20 | | | S | tmp
 PYAC| cm-3 | xyz | C | | | | |1e-20 | | | S | tmp
 R4N1| cm-3 | xyz | C | | | | |1e-20 | | | S | tmp
 R4N2| cm-3 | xyz | C | | | | |1e-20 | | | S | tmp
 R4O2| cm-3 | xyz | C | | | | |1e-20 | | | S | tmp
 R4P| cm-3 | xyz | C | | | | |1e-20 | | | S | tmp
 RA3P| cm-3 | xyz | C | | | | |1e-20 | | | S | tmp
 RB3P| cm-3 | xyz | C | | | | |1e-20 | | | S | tmp
 RCHO| cm-3 | xyz | C | | | | |1e-20 | | | S | tmp
 RCO3| cm-3 | xyz | C | | | | |1e-20 | | | S | tmp
 RIO2| cm-3 | xyz | C | | | | |1e-20 | | | S | tmp
 RIP| cm-3 | xyz | C | | | | |1e-20 | | | S | tmp
 ROH| cm-3 | xyz | C | | | | |1e-20 | | | S | tmp
 RP| cm-3 | xyz | C | | | | |1e-20 | | | S | tmp
 SO2| cm-3 | xyz | C | | | | |1e-20 | | | S | tmp
 SO4| cm-3 | xyz | C | | | | |1e-20 | | | S | tmp
 VRO2| cm-3 | xyz | C | | | | |1e-20 | | | S | tmp
 VRP| cm-3 | xyz | C | | | | |1e-20 | | | S | tmp
# --------------|------------|-----|---|----|---|---|-----|------|----|----|---------|---------------------------------
</InternalSpec>
